#These are some required steps
[General]
network = ComputerNetwork
record-eventlog = true
sim-time-limit = 500s
